T42/data/state_estimation/PT_Dx_01_2050_Su_Bd/PT_Dx_01_2050_Su_Bd_t16.csv
bus,vm_pu,va_degree,p_mw,q_mvar
1,0.950644,-0.114406,-13.717475,-5.421474
2,1.000008,-0.000459,32.781065,15.292151
3,0.951121,-0.115409,-0.000008,0.000002
4,0.950592,-0.114485,-0.000073,-0.000008
5,0.951159,-0.115108,0.000036,-0.000026
6,0.952065,-0.115356,-0.038597,-0.019770
7,0.948738,-0.116651,-0.071368,-0.036534
8,0.949259,-0.115933,-0.041952,-0.021487
9,0.950180,-0.116516,-0.895076,-0.458591
10,0.948915,-0.115700,-3.924503,-2.010512
11,0.948819,-0.115884,-0.682944,-0.349853
12,0.945066,-0.118438,-0.014241,-0.007316
13,0.948961,-0.115205,-0.052654,-0.020744
14,0.949118,-0.114019,-1.434925,-0.676988
15,0.944379,-0.119468,-0.016599,-0.008450
16,0.951664,-0.115115,-0.007582,-0.003887
17,0.949418,-0.114394,-0.023725,-0.012130
18,0.948159,-0.115533,-0.043557,-0.022320
19,0.943684,-0.118782,-0.096841,-0.049660
20,0.949876,-0.116031,-1.284747,-0.600207
21,0.944309,-0.119649,-0.002089,-0.000748
22,0.948466,-0.115568,-0.004088,-0.001640
23,0.944723,-0.118726,-0.233145,-0.119520
24,0.944344,-0.118805,-0.087753,-0.034674
25,0.945817,-0.117964,-0.008207,-0.003279
26,0.949268,-0.114273,-0.057195,-0.029317
27,0.949847,-0.114853,-0.000188,-0.000120
28,0.944119,-0.118310,-0.126225,-0.064644
29,0.950818,-0.115288,-0.065196,-0.033449
30,0.948202,-0.115596,-0.233879,-0.119715
31,0.948489,-0.115138,-0.050037,-0.025584
32,0.950721,-0.115317,-0.160583,-0.082353
33,0.949050,-0.115567,-0.561512,-0.229568
34,0.944769,-0.118863,-0.030050,-0.015319
35,0.946330,-0.118064,-0.070969,-0.036444
36,0.948794,-0.115874,-0.016622,-0.008554
37,0.950349,-0.114816,-0.006384,-0.002486
38,0.944875,-0.119124,-0.089202,-0.045637
39,0.949352,-0.115247,-0.131031,-0.067180
40,0.945001,-0.119286,-0.007631,-0.003035
41,0.945042,-0.118698,-0.026203,-0.010425
42,0.944421,-0.118987,-0.063361,-0.032410
43,0.946008,-0.118766,-0.105327,-0.053878
44,0.944394,-0.118848,-0.108317,-0.055494
45,0.944360,-0.118655,-0.001176,-0.000487
46,0.948368,-0.116120,-0.121513,-0.062285
47,0.945422,-0.119254,-0.230444,-0.118120
48,0.949766,-0.115642,-0.000546,-0.000336
49,0.949317,-0.116746,-0.026548,-0.013545
50,0.949334,-0.114618,-0.006086,-0.003135
51,0.950724,-0.115611,-0.023053,-0.009054
52,0.949784,-0.115544,-0.042365,-0.021697
53,0.944895,-0.118466,-0.485516,-0.248724
54,0.949704,-0.115620,-0.016819,-0.006630
55,0.950358,-0.114529,-0.066949,-0.034297
56,0.949837,-0.115519,-0.054141,-0.027693
57,0.949687,-0.115883,-0.055856,-0.028704
58,0.945687,-0.118628,-0.008993,-0.004565
59,0.944327,-0.119441,-0.049330,-0.019506
60,0.944157,-0.119227,-0.010108,-0.004050
61,0.949645,-0.115312,-1.061830,-0.485858
62,0.950788,-0.114355,-0.017016,-0.008668
63,0.945215,-0.118054,-0.000787,-0.000457
64,0.949185,-0.115471,-0.403199,-0.206610
65,0.949763,-0.115542,-0.667905,-0.284152
66,0.950238,-0.114893,-0.612566,-0.313800
67,0.948601,-0.115760,-0.071633,-0.036707
68,0.945079,-0.118573,-0.181904,-0.093232
69,0.948651,-0.115964,-0.021155,-0.008278
70,0.949492,-0.115678,-0.018244,-0.009326
71,0.944578,-0.118568,-0.037244,-0.019129
72,0.944589,-0.119027,-0.049615,-0.025427
73,0.944238,-0.118534,-0.010751,-0.004257
74,0.943837,-0.119459,-0.012002,-0.006158
75,0.946579,-0.118234,-0.128026,-0.065510
76,0.948903,-0.115165,-0.066097,-0.033847
77,0.950027,-0.115305,-0.042540,-0.021812
78,0.949148,-0.114880,-0.264842,-0.135762
79,0.950373,-0.115069,-0.148866,-0.076346
80,0.945945,-0.118136,0.000044,-0.000034
81,0.944726,-0.118601,-0.000883,-0.000463
82,0.948020,-0.116450,-0.020245,-0.010379
83,0.949116,-0.115674,-0.056703,-0.028938
84,0.948933,-0.114649,-0.020059,-0.010275
85,0.944991,-0.119268,-0.022305,-0.011363
86,0.950757,-0.114991,-0.030662,-0.012052
87,0.949447,-0.115940,-0.028319,-0.014486
88,0.950946,-0.115683,-0.028351,-0.014517
89,0.949969,-0.114887,-0.352767,-0.180768
90,0.949008,-0.115895,-0.105172,-0.053854
91,0.944431,-0.119041,-0.082814,-0.042383
92,0.944301,-0.119428,-0.041156,-0.021203
93,0.949416,-0.116060,-0.106885,-0.054779
94,0.945086,-0.118911,-0.090879,-0.046574
95,0.950442,-0.115427,-0.272817,-0.139741
96,0.944811,-0.119296,-0.036777,-0.014550
97,0.944493,-0.119783,-0.148789,-0.076223
98,0.943575,-0.118591,-0.069645,-0.027483
99,0.948584,-0.114877,-0.755442,-0.329022
100,0.948837,-0.116485,-0.021316,-0.010919
101,0.948394,-0.116212,-0.101544,-0.040132
102,0.949965,-0.115596,-0.388912,-0.141119
103,0.949013,-0.115789,-0.028145,-0.011081
104,0.944776,-0.120077,-0.174137,-0.068940
105,0.949792,-0.114874,-0.001880,-0.000915
106,0.950359,-0.114799,-0.000018,-0.000021
107,0.949277,-0.115024,0.000013,0.000099
108,0.948352,-0.115895,0.000005,-0.000118
109,0.948902,-0.115348,-0.000029,-0.000048
110,0.945505,-0.118386,0.000023,0.000014
111,0.944950,-0.119333,-0.000011,0.000021
112,0.949776,-0.115985,0.000080,0.000013
113,0.949250,-0.115804,0.000140,-0.000007
114,0.945331,-0.118349,0.000091,0.000025
115,0.944035,-0.118238,0.000042,0.000003
116,0.949067,-0.115762,-0.000020,-0.000003
117,0.944505,-0.118112,-0.000020,0.000143
118,0.950016,-0.115334,-0.000072,-0.000054
119,0.948100,-0.115884,0.000020,0.000062
120,0.949725,-0.115413,0.000029,0.000071
121,0.950063,-0.115512,-0.000017,0.000004
122,0.948078,-0.115111,-0.000020,-0.000021
123,0.949160,-0.116122,0.000029,0.000001
124,0.949242,-0.115758,-0.000014,0.000126
125,0.949265,-0.115986,0.000047,-0.000014
126,0.944480,-0.118760,-0.000008,-0.000035
127,0.949691,-0.116430,0.000008,0.000054
128,0.945705,-0.118778,-0.000064,0.000045
129,0.943944,-0.119674,0.000011,-0.000051
130,0.945239,-0.118874,-0.000028,-0.000099
131,0.951622,-0.114195,0.000007,0.000061
132,0.945733,-0.119491,-0.000027,-0.000036
133,0.949543,-0.115124,0.000000,-0.000010
134,0.950702,-0.114770,0.000010,0.000029
135,0.945514,-0.119320,-0.000031,-0.000020
136,0.944041,-0.118792,-0.000067,0.000082
137,0.944521,-0.118799,-0.000028,-0.000037
138,0.944521,-0.119615,-0.000012,0.000066
139,0.944977,-0.119207,-0.000107,0.000008
140,0.949024,-0.115564,-0.000049,0.000071
141,0.945189,-0.119083,-0.000002,0.000037
142,0.943960,-0.119204,-0.000050,0.000098
143,0.946015,-0.119350,0.000079,-0.000054
144,0.950603,-0.115612,-0.000056,0.000011
145,0.951586,-0.115017,-0.000089,-0.000017
146,0.949280,-0.116271,0.000042,0.000067
147,0.948457,-0.115154,0.000047,0.000002
148,0.949317,-0.115655,-0.000083,-0.000053
149,0.943762,-0.118732,0.000016,0.000075
150,0.946520,-0.118842,-0.000017,-0.000012
151,0.950682,-0.116019,-0.000070,-0.000028
152,0.950176,-0.115287,-0.000076,-0.000025
153,0.948511,-0.115220,-0.000009,0.000076
154,0.948904,-0.115453,-0.000004,-0.000038
155,0.944395,-0.118563,0.000017,-0.000061
156,0.949036,-0.115827,0.000044,0.000030
157,0.951450,-0.114122,0.000023,-0.000044
158,0.949427,-0.115546,0.000028,-0.000016
159,0.945375,-0.119040,0.000058,-0.000012
160,0.950765,-0.115885,0.000013,0.000054
161,0.949330,-0.115409,-0.000005,-0.000017
162,0.945125,-0.118998,0.000021,0.000050
163,0.951719,-0.114606,-0.000007,0.000041
164,0.948955,-0.115394,-0.000011,-0.000020
165,0.949983,-0.115233,-0.000001,-0.000069
166,0.951292,-0.114709,-0.000036,-0.000030
167,0.945074,-0.119362,-0.000016,0.000007
168,0.949038,-0.115193,-0.000040,0.000019
169,0.950284,-0.114559,0.000008,-0.000026
170,0.948872,-0.115964,0.000029,0.000007
171,0.943623,-0.119079,0.000058,0.000024
172,0.944408,-0.119757,-0.000016,0.000074
173,0.949203,-0.115591,-0.000048,-0.000056
174,0.944718,-0.118604,0.000011,0.000068
175,0.944565,-0.119072,0.000003,0.000034
176,0.948754,-0.115874,-0.000027,0.000048
177,0.944575,-0.118702,-0.000016,-0.000005
178,0.944711,-0.118175,0.000013,0.000047
179,0.950553,-0.115748,-0.000003,-0.000001
180,0.950490,-0.115139,-0.000032,0.000024
181,0.944439,-0.119743,0.000030,0.000036
182,0.944329,-0.119377,-0.000057,0.000071
183,0.948882,-0.114969,0.000230,-0.000099
184,0.949799,-0.116464,-0.000063,-0.000110
185,0.948938,-0.116158,-0.000107,0.000013
186,0.943968,-0.119637,-0.000031,-0.000046
187,0.949649,-0.115202,-0.000003,-0.000007
188,0.944299,-0.118445,-0.000030,0.000012
189,0.950930,-0.114413,0.000019,0.000067
190,0.945686,-0.119069,-0.000069,-0.000047
191,0.951308,-0.114270,-0.000077,0.000004
